examples/feeders/25_SE001_1/012_cargasBT_1_1.dss
New Load.BT_101775_M1 bus1=UC101775.2.4 phases=1 conn=Wye model=2 kv=0.22 kw=0.0160305 pf=0.92 daily=RU5_DU status=variable vmaxpu=1.5 vminpu=0.92
New Load.BT_101775_M2 bus1=UC101775.2.4 phases=1 conn=Wye model=3 kv=0.22 kw=0.0160305 pf=0.92 daily=RU5_DU status=variable vmaxpu=1.5 vminpu=0.92
New Load.BT_103036_M1 bus1=UC103036.1.2.4 phases=1 conn=Delta model=2 kv=0.44 kw=0.2611435 pf=0.92 daily=RU1_DU status=variable vmaxpu=1.5 vminpu=0.92
New Load.BT_103036_M2 bus1=UC103036.1.2.4 phases=1 conn=Delta model=3 kv=0.44 kw=0.2611435 pf=0.92 daily=RU1_DU status=variable vmaxpu=1.5 vminpu=0.92
New Load.BT_IP6252_M1 bus1=BT377781.1.4 phases=1 conn=Wye model=2 kv=0.22 kw=0.130187 pf=0.92 daily=IP1_DU status=variable vmaxpu=1.5 vminpu=0.92
New Load.BT_IP6252_M2 bus1=BT377781.1.4 phases=1 conn=Wye model=3 kv=0.22 kw=0.130187 pf=0.92 daily=IP1_DU status=variable vmaxpu=1.5 vminpu=0.92
New Load.BT_103047_M1 bus1=UC103047.2.4 phases=1 conn=Wye model=2 kv=0.219393102 kw=0.1473455 pf=0.92 daily=RU6_DU status=variable vmaxpu=1.5 vminpu=0.92
New Load.BT_103047_M2 bus1=UC103047.2.4 phases=1 conn=Wye model=3 kv=0.219393102 kw=0.1473455 pf=0.92 daily=RU6_DU status=variable vmaxpu=1.5 vminpu=0.92
New Load.BT_103050_M1 bus1=UC103050.2.4 phases=1 conn=Wye model=2 kv=0.219393102 kw=0.207417 pf=0.92 daily=RU6_DU status=variable vmaxpu=1.5 vminpu=0.92
New Load.BT_103050_M2 bus1=UC103050.2.4 phases=1 conn=Wye model=3 kv=0.219393102 kw=0.207417 pf=0.92 daily=RU6_DU status=variable vmaxpu=1.5 vminpu=0.92
New Load.BT_123229_M1 bus1=UC123229.1.4 phases=1 conn=Wye model=2 kv=0.219393102 kw=0.108483 pf=0.92 daily=RU3_DU status=variable vmaxpu=1.5 vminpu=0.92
New Load.BT_123229_M2 bus1=UC123229.1.4 phases=1 conn=Wye model=3 kv=0.219393102 kw=0.108483 pf=0.92 daily=RU3_DU status=variable vmaxpu=1.5 vminpu=0.92
New Load.BT_130502_M1 bus1=UC130502.1.2.3.4 phases=3 conn=Delta model=2 kv=0.38 kw=0.8825395 pf=0.92 daily=RU1_DU status=variable vmaxpu=1.5 vminpu=0.92
New Load.BT_130502_M2 bus1=UC130502.1.2.3.4 phases=3 conn=Delta model=3 kv=0.38 kw=0.8825395 pf=0.92 daily=RU1_DU status=variable vmaxpu=1.5 vminpu=0.92
New Load.BT_129818_M1 bus1=UC129818.1.4 phases=1 conn=Wye model=2 kv=0.219393102 kw=0.1371445 pf=0.92 daily=RU6_DU status=variable vmaxpu=1.5 vminpu=0.92
New Load.BT_129818_M2 bus1=UC129818.1.4 phases=1 conn=Wye model=3 kv=0.219393102 kw=0.1371445 pf=0.92 daily=RU6_DU status=variable vmaxpu=1.5 vminpu=0.92
New Load.BT_131322_M1 bus1=UC131322.2.4 phases=1 conn=Wye model=2 kv=0.219393102 kw=0.3166715 pf=0.92 daily=RU4_DU status=variable vmaxpu=1.5 vminpu=0.92
New Load.BT_131322_M2 bus1=UC131322.2.4 phases=1 conn=Wye model=3 kv=0.219393102 kw=0.3166715 pf=0.92 daily=RU4_DU status=variable vmaxpu=1.5 vminpu=0.92
New Load.BT_131523_M1 bus1=UC131523.1.4 phases=1 conn=Wye model=2 kv=0.219393102 kw=0.580638 pf=0.92 daily=RU2_DU status=variable vmaxpu=1.5 vminpu=0.92
New Load.BT_131523_M2 bus1=UC131523.1.4 phases=1 conn=Wye model=3 kv=0.219393102 kw=0.580638 pf=0.92 daily=RU2_DU status=variable vmaxpu=1.5 vminpu=0.92
New Load.BT_131716_M1 bus1=UC131716.1.4 phases=1 conn=Wye model=2 kv=0.219393102 kw=0.1345055 pf=0.92 daily=RE6_DU status=variable vmaxpu=1.5 vminpu=0.92
New Load.BT_131716_M2 bus1=UC131716.1.4 phases=1 conn=Wye model=3 kv=0.219393102 kw=0.1345055 pf=0.92 daily=RE6_DU status=variable vmaxpu=1.5 vminpu=0.92
New Load.BT_131981_M1 bus1=UC131981.1.2.4 phases=1 conn=Delta model=2 kv=0.38 kw=0.010991 pf=0.92 daily=PP1_DU status=variable vmaxpu=1.5 vminpu=0.92
New Load.BT_131981_M2 bus1=UC131981.1.2.4 phases=1 conn=Delta model=3 kv=0.38 kw=0.010991 pf=0.92 daily=PP1_DU status=variable vmaxpu=1.5 vminpu=0.92
New Load.BT_132088_M1 bus1=UC132088.2.4 phases=1 conn=Wye model=2 kv=0.219393102 kw=0.0216355 pf=0.92 daily=RU4_DU status=variable vmaxpu=1.5 vminpu=0.92
New Load.BT_132088_M2 bus1=UC132088.2.4 phases=1 conn=Wye model=3 kv=0.219393102 kw=0.0216355 pf=0.92 daily=RU4_DU status=variable vmaxpu=1.5 vminpu=0.92
New Load.BT_124522_M1 bus1=UC124522.1.4 phases=1 conn=Wye model=2 kv=0.219393102 kw=0.2595705 pf=0.92 daily=RU1_DU status=variable vmaxpu=1.5 vminpu=0.92
New Load.BT_124522_M2 bus1=UC124522.1.4 phases=1 conn=Wye model=3 kv=0.219393102 kw=0.2595705 pf=0.92 daily=RU1_DU status=variable vmaxpu=1.5 vminpu=0.92
New Load.BT_124523_M1 bus1=UC124523.1.4 phases=1 conn=Wye model=2 kv=0.219393102 kw=0.305059 pf=0.92 daily=RU7_DU status=variable vmaxpu=1.5 vminpu=0.92
New Load.BT_124523_M2 bus1=UC124523.1.4 phases=1 conn=Wye model=3 kv=0.219393102 kw=0.305059 pf=0.92 daily=RU7_DU status=variable vmaxpu=1.5 vminpu=0.92
New Load.BT_126197_M1 bus1=UC126197.1.4 phases=1 conn=Wye model=2 kv=0.219393102 kw=0.0900175 pf=0.92 daily=RU5_DU status=variable vmaxpu=1.5 vminpu=0.92
New Load.BT_126197_M2 bus1=UC126197.1.4 phases=1 conn=Wye model=3 kv=0.219393102 kw=0.0900175 pf=0.92 daily=RU5_DU status=variable vmaxpu=1.5 vminpu=0.92
New Load.BT_127304_M1 bus1=UC127304.1.4 phases=1 conn=Wye model=2 kv=0.219393102 kw=0.0696985 pf=0.92 daily=RE7_DU status=variable vmaxpu=1.5 vminpu=0.92
New Load.BT_127304_M2 bus1=UC127304.1.4 phases=1 conn=Wye model=3 kv=0.219393102 kw=0.0696985 pf=0.92 daily=RE7_DU status=variable vmaxpu=1.5 vminpu=0.92
New Load.BT_127609_M1 bus1=UC127609.1.4 phases=1 conn=Wye model=2 kv=0.219393102 kw=0.1578385 pf=0.92 daily=RU5_DU status=variable vmaxpu=1.5 vminpu=0.92
New Load.BT_127609_M2 bus1=UC127609.1.4 phases=1 conn=Wye model=3 kv=0.219393102 kw=0.1578385 pf=0.92 daily=RU5_DU status=variable vmaxpu=1.5 vminpu=0.92
New Load.BT_128618_M1 bus1=UC128618.3.4 phases=1 conn=Wye model=2 kv=0.219393102 kw=0.6784085 pf=0.92 daily=RU2_DU status=variable vmaxpu=1.5 vminpu=0.92
New Load.BT_128618_M2 bus1=UC128618.3.4 phases=1 conn=Wye model=3 kv=0.219393102 kw=0.6784085 pf=0.92 daily=RU2_DU status=variable vmaxpu=1.5 vminpu=0.92
New Load.BT_128858_M1 bus1=UC128858.2.4 phases=1 conn=Wye model=2 kv=0.219393102 kw=0.0530535 pf=0.92 daily=RU7_DU status=variable vmaxpu=1.5 vminpu=0.92
New Load.BT_128858_M2 bus1=UC128858.2.4 phases=1 conn=Wye model=3 kv=0.219393102 kw=0.0530535 pf=0.92 daily=RU7_DU status=variable vmaxpu=1.5 vminpu=0.92
New Load.BT_133865_M1 bus1=UC133865.3.4 phases=1 conn=Wye model=2 kv=0.219393102 kw=0.00295 pf=0.92 daily=RU4_DU status=variable vmaxpu=1.5 vminpu=0.92
New Load.BT_133865_M2 bus1=UC133865.3.4 phases=1 conn=Wye model=3 kv=0.219393102 kw=0.00295 pf=0.92 daily=RU4_DU status=variable vmaxpu=1.5 vminpu=0.92
New Load.BT_134236_M1 bus1=UC134236.3.4 phases=1 conn=Wye model=2 kv=0.219393102 kw=0.22566 pf=0.92 daily=RU5_DU status=variable vmaxpu=1.5 vminpu=0.92
New Load.BT_134236_M2 bus1=UC134236.3.4 phases=1 conn=Wye model=3 kv=0.219393102 kw=0.22566 pf=0.92 daily=RU5_DU status=variable vmaxpu=1.5 vminpu=0.92
New Load.BT_134297_M1 bus1=UC134297.2.4 phases=1 conn=Wye model=2 kv=0.219393102 kw=0.1664705 pf=0.92 daily=RU5_DU status=variable vmaxpu=1.5 vminpu=0.92
New Load.BT_134297_M2 bus1=UC134297.2.4 phases=1 conn=Wye model=3 kv=0.219393102 kw=0.1664705 pf=0.92 daily=RU5_DU status=variable vmaxpu=1.5 vminpu=0.92
New Load.BT_135839_M1 bus1=UC135839.1.4 phases=1 conn=Wye model=2 kv=0.219393102 kw=0.1975365 pf=0.92 daily=RU2_DU status=variable vmaxpu=1.5 vminpu=0.92
New Load.BT_135839_M2 bus1=UC135839.1.4 phases=1 conn=Wye model=3 kv=0.219393102 kw=0.1975365 pf=0.92 daily=RU2_DU status=variable vmaxpu=1.5 vminpu=0.92
New Load.BT_136142_M1 bus1=UC136142.2.4 phases=1 conn=Wye model=2 kv=0.219393102 kw=0.084668 pf=0.92 daily=RE5_DU status=variable vmaxpu=1.5 vminpu=0.92
New Load.BT_136142_M2 bus1=UC136142.2.4 phases=1 conn=Wye model=3 kv=0.219393102 kw=0.084668 pf=0.92 daily=RE5_DU status=variable vmaxpu=1.5 vminpu=0.92
New Load.BT_137887_M1 bus1=UC137887.3.4 phases=1 conn=Wye model=2 kv=0.219393102 kw=0.0688335 pf=0.92 daily=RE3_DU status=variable vmaxpu=1.5 vminpu=0.92
New Load.BT_137887_M2 bus1=UC137887.3.4 phases=1 conn=Wye model=3 kv=0.219393102 kw=0.0688335 pf=0.92 daily=RE3_DU status=variable vmaxpu=1.5 vminpu=0.92
New Load.BT_138164_M1 bus1=UC138164.3.4 phases=1 conn=Wye model=2 kv=0.219393102 kw=0.1091265 pf=0.92 daily=RE3_DU status=variable vmaxpu=1.5 vminpu=0.92
New Load.BT_138164_M2 bus1=UC138164.3.4 phases=1 conn=Wye model=3 kv=0.219393102 kw=0.1091265 pf=0.92 daily=RE3_DU status=variable vmaxpu=1.5 vminpu=0.92
New Load.BT_138283_M1 bus1=UC138283.1.4 phases=1 conn=Wye model=2 kv=0.219393102 kw=0.03237 pf=0.92 daily=RU3_DU status=variable vmaxpu=1.5 vminpu=0.92
New Load.BT_138283_M2 bus1=UC138283.1.4 phases=1 conn=Wye model=3 kv=0.219393102 kw=0.03237 pf=0.92 daily=RU3_DU status=variable vmaxpu=1.5 vminpu=0.92
New Load.BT_138294_M1 bus1=UC138294.3.4 phases=1 conn=Wye model=2 kv=0.219393102 kw=0 pf=0.92 daily=RE8_DU status=variable vmaxpu=1.5 vminpu=0.92
New Load.BT_138294_M2 bus1=UC138294.3.4 phases=1 conn=Wye model=3 kv=0.219393102 kw=0 pf=0.92 daily=RE8_DU status=variable vmaxpu=1.5 vminpu=0.92
New Load.BT_138437_M1 bus1=UC138437.3.4 phases=1 conn=Wye model=2 kv=0.219393102 kw=0 pf=0.92 daily=CO5_DU status=variable vmaxpu=1.5 vminpu=0.92
New Load.BT_138437_M2 bus1=UC138437.3.4 phases=1 conn=Wye model=3 kv=0.219393102 kw=0 pf=0.92 daily=CO5_DU status=variable vmaxpu=1.5 vminpu=0.92
New Load.BT_123137_M1 bus1=UC123137.1.4 phases=1 conn=Wye model=2 kv=0.219393102 kw=0.1212765 pf=0.92 daily=RU6_DU status=variable vmaxpu=1.5 vminpu=0.92
New Load.BT_123137_M2 bus1=UC123137.1.4 phases=1 conn=Wye model=3 kv=0.219393102 kw=0.1212765 pf=0.92 daily=RU6_DU status=variable vmaxpu=1.5 vminpu=0.92
New Load.BT_119066_M1 bus1=UC119066.3.4 phases=1 conn=Wye model=2 kv=0.219393102 kw=0.023597 pf=0.92 daily=RU1_DU status=variable vmaxpu=1.5 vminpu=0.92
New Load.BT_119066_M2 bus1=UC119066.3.4 phases=1 conn=Wye model=3 kv=0.219393102 kw=0.023597 pf=0.92 daily=RU1_DU status=variable vmaxpu=1.5 vminpu=0.92
New Load.BT_119067_M1 bus1=UC119067.2.4 phases=1 conn=Wye model=2 kv=0.219393102 kw=0.2354475 pf=0.92 daily=RU2_DU status=variable vmaxpu=1.5 vminpu=0.92
New Load.BT_119067_M2 bus1=UC119067.2.4 phases=1 conn=Wye model=3 kv=0.219393102 kw=0.2354475 pf=0.92 daily=RU2_DU status=variable vmaxpu=1.5 vminpu=0.92
New Load.BT_119072_M1 bus1=UC119072.1.4 phases=1 conn=Wye model=2 kv=0.219393102 kw=0.173047 pf=0.92 daily=RU1_DU status=variable vmaxpu=1.5 vminpu=0.92
New Load.BT_119072_M2 bus1=UC119072.1.4 phases=1 conn=Wye model=3 kv=0.219393102 kw=0.173047 pf=0.92 daily=RU1_DU status=variable vmaxpu=1.5 vminpu=0.92
New Load.BT_119579_M1 bus1=UC119579.2.4 phases=1 conn=Wye model=2 kv=0.219393102 kw=0.082237 pf=0.92 daily=RU3_DU status=variable vmaxpu=1.5 vminpu=0.92
New Load.BT_119579_M2 bus1=UC119579.2.4 phases=1 conn=Wye model=3 kv=0.219393102 kw=0.082237 pf=0.92 daily=RU3_DU status=variable vmaxpu=1.5 vminpu=0.92
New Load.BT_119740_M1 bus1=UC119740.2.4 phases=1 conn=Wye model=2 kv=0.219393102 kw=0.137778 pf=0.92 daily=RE1_DU status=variable vmaxpu=1.5 vminpu=0.92
New Load.BT_119740_M2 bus1=UC119740.2.4 phases=1 conn=Wye model=3 kv=0.219393102 kw=0.137778 pf=0.92 daily=RE1_DU status=variable vmaxpu=1.5 vminpu=0.92
New Load.BT_121269_M1 bus1=UC121269.1.4 phases=1 conn=Wye model=2 kv=0.219393102 kw=0.1301915 pf=0.92 daily=RE4_DU status=variable vmaxpu=1.5 vminpu=0.92
New Load.BT_121269_M2 bus1=UC121269.1.4 phases=1 conn=Wye model=3 kv=0.219393102 kw=0.1301915 pf=0.92 daily=RE4_DU status=variable vmaxpu=1.5 vminpu=0.92
New Load.BT_121513_M1 bus1=UC121513.2.4 phases=1 conn=Wye model=2 kv=0.219393102 kw=0.170529 pf=0.92 daily=RE1_DU status=variable vmaxpu=1.5 vminpu=0.92
New Load.BT_121513_M2 bus1=UC121513.2.4 phases=1 conn=Wye model=3 kv=0.219393102 kw=0.170529 pf=0.92 daily=RE1_DU status=variable vmaxpu=1.5 vminpu=0.92
New Load.BT_121833_M1 bus1=UC121833.2.4 phases=1 conn=Wye model=2 kv=0.219393102 kw=0.276875 pf=0.92 daily=RU1_DU status=variable vmaxpu=1.5 vminpu=0.92
New Load.BT_121833_M2 bus1=UC121833.2.4 phases=1 conn=Wye model=3 kv=0.219393102 kw=0.276875 pf=0.92 daily=RU1_DU status=variable vmaxpu=1.5 vminpu=0.92
New Load.BT_104038_M1 bus1=UC104038.2.4 phases=1 conn=Wye model=2 kv=0.219393102 kw=0.041913 pf=0.92 daily=CO7_DU status=variable vmaxpu=1.5 vminpu=0.92
New Load.BT_104038_M2 bus1=UC104038.2.4 phases=1 conn=Wye model=3 kv=0.219393102 kw=0.041913 pf=0.92 daily=CO7_DU status=variable vmaxpu=1.5 vminpu=0.92
New Load.BT_104043_M1 bus1=UC104043.1.4 phases=1 conn=Wye model=2 kv=0.219393102 kw=0.078907 pf=0.92 daily=RE3_DU status=variable vmaxpu=1.5 vminpu=0.92
New Load.BT_104043_M2 bus1=UC104043.1.4 phases=1 conn=Wye model=3 kv=0.219393102 kw=0.078907 pf=0.92 daily=RE3_DU status=variable vmaxpu=1.5 vminpu=0.92
New Load.BT_118215_M1 bus1=UC118215.2.4 phases=1 conn=Wye model=2 kv=0.219393102 kw=0.43891 pf=0.92 daily=RU1_DU status=variable vmaxpu=1.5 vminpu=0.92
New Load.BT_118215_M2 bus1=UC118215.2.4 phases=1 conn=Wye model=3 kv=0.219393102 kw=0.43891 pf=0.92 daily=RU1_DU status=variable vmaxpu=1.5 vminpu=0.92
New Load.BT_118528_M1 bus1=UC118528.1.4 phases=1 conn=Wye model=2 kv=0.219393102 kw=0.0895405 pf=0.92 daily=RU6_DU status=variable vmaxpu=1.5 vminpu=0.92
New Load.BT_118528_M2 bus1=UC118528.1.4 phases=1 conn=Wye model=3 kv=0.219393102 kw=0.0895405 pf=0.92 daily=RU6_DU status=variable vmaxpu=1.5 vminpu=0.92
New Load.BT_102593_M1 bus1=UC102593.1.4 phases=1 conn=Wye model=2 kv=0.219393102 kw=0.351438 pf=0.92 daily=RU5_DU status=variable vmaxpu=1.5 vminpu=0.92
New Load.BT_102593_M2 bus1=UC102593.1.4 phases=1 conn=Wye model=3 kv=0.219393102 kw=0.351438 pf=0.92 daily=RU5_DU status=variable vmaxpu=1.5 vminpu=0.92
New Load.BT_102585_M1 bus1=UC102585.1.4 phases=1 conn=Wye model=2 kv=0.219393102 kw=0.4135785 pf=0.92 daily=RU7_DU status=variable vmaxpu=1.5 vminpu=0.92
New Load.BT_102585_M2 bus1=UC102585.1.4 phases=1 conn=Wye model=3 kv=0.219393102 kw=0.4135785 pf=0.92 daily=RU7_DU status=variable vmaxpu=1.5 vminpu=0.92
New Load.BT_102586_M1 bus1=UC102586.1.2.4 phases=1 conn=Delta model=2 kv=0.38 kw=0.6580185 pf=0.92 daily=PP6_DU status=variable vmaxpu=1.5 vminpu=0.92
New Load.BT_102586_M2 bus1=UC102586.1.2.4 phases=1 conn=Delta model=3 kv=0.38 kw=0.6580185 pf=0.92 daily=PP6_DU status=variable vmaxpu=1.5 vminpu=0.92
New Load.BT_102588_M1 bus1=UC102588.1.4 phases=1 conn=Wye model=2 kv=0.219393102 kw=0.207513 pf=0.92 daily=RU2_DU status=variable vmaxpu=1.5 vminpu=0.92
New Load.BT_102588_M2 bus1=UC102588.1.4 phases=1 conn=Wye model=3 kv=0.219393102 kw=0.207513 pf=0.92 daily=RU2_DU status=variable vmaxpu=1.5 vminpu=0.92
New Load.BT_102590_M1 bus1=UC102590.1.4 phases=1 conn=Wye model=2 kv=0.219393102 kw=0.526764 pf=0.92 daily=RU2_DU status=variable vmaxpu=1.5 vminpu=0.92
New Load.BT_102590_M2 bus1=UC102590.1.4 phases=1 conn=Wye model=3 kv=0.219393102 kw=0.526764 pf=0.92 daily=RU2_DU status=variable vmaxpu=1.5 vminpu=0.92
New Load.BT_102591_M1 bus1=UC102591.2.4 phases=1 conn=Wye model=2 kv=0.219393102 kw=0.0202805 pf=0.92 daily=CO7_DU status=variable vmaxpu=1.5 vminpu=0.92
New Load.BT_102591_M2 bus1=UC102591.2.4 phases=1 conn=Wye model=3 kv=0.219393102 kw=0.0202805 pf=0.92 daily=CO7_DU status=variable vmaxpu=1.5 vminpu=0.92
New Load.BT_IP6253_M1 bus1=BT269851.1.4 phases=1 conn=Wye model=2 kv=0.219393102 kw=0.0466955 pf=0.92 daily=IP1_DU status=variable vmaxpu=1.5 vminpu=0.92
New Load.BT_IP6253_M2 bus1=BT269851.1.4 phases=1 conn=Wye model=3 kv=0.219393102 kw=0.0466955 pf=0.92 daily=IP1_DU status=variable vmaxpu=1.5 vminpu=0.92
New Load.BT_IP6254_M1 bus1=BT269861.1.4 phases=1 conn=Wye model=2 kv=0.219393102 kw=0.070043 pf=0.92 daily=IP1_DU status=variable vmaxpu=1.5 vminpu=0.92
New Load.BT_IP6254_M2 bus1=BT269861.1.4 phases=1 conn=Wye model=3 kv=0.219393102 kw=0.070043 pf=0.92 daily=IP1_DU status=variable vmaxpu=1.5 vminpu=0.92
New Load.BT_IP6255_M1 bus1=BT348471.1.4 phases=1 conn=Wye model=2 kv=0.219393102 kw=0.0466955 pf=0.92 daily=IP1_DU status=variable vmaxpu=1.5 vminpu=0.92
New Load.BT_IP6255_M2 bus1=BT348471.1.4 phases=1 conn=Wye model=3 kv=0.219393102 kw=0.0466955 pf=0.92 daily=IP1_DU status=variable vmaxpu=1.5 vminpu=0.92
New Load.BT_IP6256_M1 bus1=BT270802.2.4 phases=1 conn=Wye model=2 kv=0.219393102 kw=0.0466955 pf=0.92 daily=IP1_DU status=variable vmaxpu=1.5 vminpu=0.92
New Load.BT_IP6256_M2 bus1=BT270802.2.4 phases=1 conn=Wye model=3 kv=0.219393102 kw=0.0466955 pf=0.92 daily=IP1_DU status=variable vmaxpu=1.5 vminpu=0.92
New Load.BT_IP6257_M1 bus1=BT269871.1.4 phases=1 conn=Wye model=2 kv=0.219393102 kw=0.0350215 pf=0.92 daily=IP1_DU status=variable vmaxpu=1.5 vminpu=0.92
New Load.BT_IP6257_M2 bus1=BT269871.1.4 phases=1 conn=Wye model=3 kv=0.219393102 kw=0.0350215 pf=0.92 daily=IP1_DU status=variable vmaxpu=1.5 vminpu=0.92
New Load.BT_IP6258_M1 bus1=BT269881.1.4 phases=1 conn=Wye model=2 kv=0.219393102 kw=0.0466955 pf=0.92 daily=IP1_DU status=variable vmaxpu=1.5 vminpu=0.92
New Load.BT_IP6258_M2 bus1=BT269881.1.4 phases=1 conn=Wye model=3 kv=0.219393102 kw=0.0466955 pf=0.92 daily=IP1_DU status=variable vmaxpu=1.5 vminpu=0.92
New Load.BT_IP6259_M1 bus1=BT269891.1.4 phases=1 conn=Wye model=2 kv=0.219393102 kw=0.0466955 pf=0.92 daily=IP1_DU status=variable vmaxpu=1.5 vminpu=0.92
New Load.BT_IP6259_M2 bus1=BT269891.1.4 phases=1 conn=Wye model=3 kv=0.219393102 kw=0.0466955 pf=0.92 daily=IP1_DU status=variable vmaxpu=1.5 vminpu=0.92
New Load.BT_IP6260_M1 bus1=BT435671.1.4 phases=1 conn=Wye model=2 kv=0.219393102 kw=0.130187 pf=0.92 daily=IP1_DU status=variable vmaxpu=1.5 vminpu=0.92
New Load.BT_IP6260_M2 bus1=BT435671.1.4 phases=1 conn=Wye model=3 kv=0.219393102 kw=0.130187 pf=0.92 daily=IP1_DU status=variable vmaxpu=1.5 vminpu=0.92
New Load.BT_IP6261_M1 bus1=BT701261.1.4 phases=1 conn=Wye model=2 kv=0.219393102 kw=0.0466955 pf=0.92 daily=IP1_DU status=variable vmaxpu=1.5 vminpu=0.92
New Load.BT_IP6261_M2 bus1=BT701261.1.4 phases=1 conn=Wye model=3 kv=0.219393102 kw=0.0466955 pf=0.92 daily=IP1_DU status=variable vmaxpu=1.5 vminpu=0.92
New Load.BT_IP6262_M1 bus1=BT701271.1.4 phases=1 conn=Wye model=2 kv=0.219393102 kw=0.130187 pf=0.92 daily=IP1_DU status=variable vmaxpu=1.5 vminpu=0.92
New Load.BT_IP6262_M2 bus1=BT701271.1.4 phases=1 conn=Wye model=3 kv=0.219393102 kw=0.130187 pf=0.92 daily=IP1_DU status=variable vmaxpu=1.5 vminpu=0.92
New Load.BT_IP6263_M1 bus1=BT269841.1.4 phases=1 conn=Wye model=2 kv=0.219393102 kw=0.0350215 pf=0.92 daily=IP1_DU status=variable vmaxpu=1.5 vminpu=0.92
New Load.BT_IP6263_M2 bus1=BT269841.1.4 phases=1 conn=Wye model=3 kv=0.219393102 kw=0.0350215 pf=0.92 daily=IP1_DU status=variable vmaxpu=1.5 vminpu=0.92
New Load.BT_IP6264_M1 bus1=BT357151.1.4 phases=1 conn=Wye model=2 kv=0.219393102 kw=0.093391 pf=0.92 daily=IP1_DU status=variable vmaxpu=1.5 vminpu=0.92
New Load.BT_IP6264_M2 bus1=BT357151.1.4 phases=1 conn=Wye model=3 kv=0.219393102 kw=0.093391 pf=0.92 daily=IP1_DU status=variable vmaxpu=1.5 vminpu=0.92
New Load.BT_IP6265_M1 bus1=BT701351.1.4 phases=1 conn=Wye model=2 kv=0.219393102 kw=0.0466955 pf=0.92 daily=IP1_DU status=variable vmaxpu=1.5 vminpu=0.92
New Load.BT_IP6265_M2 bus1=BT701351.1.4 phases=1 conn=Wye model=3 kv=0.219393102 kw=0.0466955 pf=0.92 daily=IP1_DU status=variable vmaxpu=1.5 vminpu=0.92
New Load.BT_IP6266_M1 bus1=BT313401.1.4 phases=1 conn=Wye model=2 kv=0.219393102 kw=0.0350215 pf=0.92 daily=IP1_DU status=variable vmaxpu=1.5 vminpu=0.92
New Load.BT_IP6266_M2 bus1=BT313401.1.4 phases=1 conn=Wye model=3 kv=0.219393102 kw=0.0350215 pf=0.92 daily=IP1_DU status=variable vmaxpu=1.5 vminpu=0.92
New Load.BT_IP8020_M1 bus1=ET1_1113.1.4 phases=1 conn=Wye model=2 kv=0.219393102 kw=0.0350215 pf=0.92 daily=IP1_DU status=variable vmaxpu=1.5 vminpu=0.92
New Load.BT_IP8020_M2 bus1=ET1_1113.1.4 phases=1 conn=Wye model=3 kv=0.219393102 kw=0.0350215 pf=0.92 daily=IP1_DU status=variable vmaxpu=1.5 vminpu=0.92
New Load.BT_102549_M1 bus1=UC102549.1.4 phases=1 conn=Wye model=2 kv=0.22 kw=0.2119505 pf=0.92 daily=RU6_DU status=variable vmaxpu=1.5 vminpu=0.92
New Load.BT_102549_M2 bus1=UC102549.1.4 phases=1 conn=Wye model=3 kv=0.22 kw=0.2119505 pf=0.92 daily=RU6_DU status=variable vmaxpu=1.5 vminpu=0.92
New Load.BT_102553_M1 bus1=UC102553.2.4 phases=1 conn=Wye model=2 kv=0.22 kw=0.242924 pf=0.92 daily=RU5_DU status=variable vmaxpu=1.5 vminpu=0.92
New Load.BT_102553_M2 bus1=UC102553.2.4 phases=1 conn=Wye model=3 kv=0.22 kw=0.242924 pf=0.92 daily=RU5_DU status=variable vmaxpu=1.5 vminpu=0.92
New Load.BT_102554_M1 bus1=UC102554.1.4 phases=1 conn=Wye model=2 kv=0.22 kw=0.195707 pf=0.92 daily=RU4_DU status=variable vmaxpu=1.5 vminpu=0.92
New Load.BT_102554_M2 bus1=UC102554.1.4 phases=1 conn=Wye model=3 kv=0.22 kw=0.195707 pf=0.92 daily=RU4_DU status=variable vmaxpu=1.5 vminpu=0.92
New Load.BT_102555_M1 bus1=UC102555.1.2.4 phases=1 conn=Delta model=2 kv=0.44 kw=0.2512115 pf=0.92 daily=RU8_DU status=variable vmaxpu=1.5 vminpu=0.92
New Load.BT_102555_M2 bus1=UC102555.1.2.4 phases=1 conn=Delta model=3 kv=0.44 kw=0.2512115 pf=0.92 daily=RU8_DU status=variable vmaxpu=1.5 vminpu=0.92
New Load.BT_115344_M1 bus1=UC115344.1.4 phases=1 conn=Wye model=2 kv=0.22 kw=0.056671 pf=0.92 daily=RU7_DU status=variable vmaxpu=1.5 vminpu=0.92
New Load.BT_115344_M2 bus1=UC115344.1.4 phases=1 conn=Wye model=3 kv=0.22 kw=0.056671 pf=0.92 daily=RU7_DU status=variable vmaxpu=1.5 vminpu=0.92
New Load.BT_115345_M1 bus1=UC115345.2.4 phases=1 conn=Wye model=2 kv=0.22 kw=0.099882 pf=0.92 daily=RU5_DU status=variable vmaxpu=1.5 vminpu=0.92
New Load.BT_115345_M2 bus1=UC115345.2.4 phases=1 conn=Wye model=3 kv=0.22 kw=0.099882 pf=0.92 daily=RU5_DU status=variable vmaxpu=1.5 vminpu=0.92
New Load.BT_123250_M1 bus1=UC123250.1.4 phases=1 conn=Wye model=2 kv=0.22 kw=0.113733 pf=0.92 daily=RU2_DU status=variable vmaxpu=1.5 vminpu=0.92
New Load.BT_123250_M2 bus1=UC123250.1.4 phases=1 conn=Wye model=3 kv=0.22 kw=0.113733 pf=0.92 daily=RU2_DU status=variable vmaxpu=1.5 vminpu=0.92
New Load.BT_122791_M1 bus1=UC122791.1.4 phases=1 conn=Wye model=2 kv=0.22 kw=0.258421 pf=0.92 daily=RU6_DU status=variable vmaxpu=1.5 vminpu=0.92
New Load.BT_122791_M2 bus1=UC122791.1.4 phases=1 conn=Wye model=3 kv=0.22 kw=0.258421 pf=0.92 daily=RU6_DU status=variable vmaxpu=1.5 vminpu=0.92
New Load.BT_102600_M1 bus1=UC102600.2.4 phases=1 conn=Wye model=2 kv=0.22 kw=0.3303805 pf=0.92 daily=RU7_DU status=variable vmaxpu=1.5 vminpu=0.92
New Load.BT_102600_M2 bus1=UC102600.2.4 phases=1 conn=Wye model=3 kv=0.22 kw=0.3303805 pf=0.92 daily=RU7_DU status=variable vmaxpu=1.5 vminpu=0.92
New Load.BT_103098_M1 bus1=UC103098.2.4 phases=1 conn=Wye model=2 kv=0.22 kw=0.1312295 pf=0.92 daily=RU3_DU status=variable vmaxpu=1.5 vminpu=0.92
New Load.BT_103098_M2 bus1=UC103098.2.4 phases=1 conn=Wye model=3 kv=0.22 kw=0.1312295 pf=0.92 daily=RU3_DU status=variable vmaxpu=1.5 vminpu=0.92
New Load.BT_127709_M1 bus1=UC127709.1.4 phases=1 conn=Wye model=2 kv=0.22 kw=0.3196265 pf=0.92 daily=RU6_DU status=variable vmaxpu=1.5 vminpu=0.92
New Load.BT_127709_M2 bus1=UC127709.1.4 phases=1 conn=Wye model=3 kv=0.22 kw=0.3196265 pf=0.92 daily=RU6_DU status=variable vmaxpu=1.5 vminpu=0.92
New Load.BT_IP6272_M1 bus1=BT597561.1.4 phases=1 conn=Wye model=2 kv=0.22 kw=0.204713 pf=0.92 daily=IP1_DU status=variable vmaxpu=1.5 vminpu=0.92
New Load.BT_IP6272_M2 bus1=BT597561.1.4 phases=1 conn=Wye model=3 kv=0.22 kw=0.204713 pf=0.92 daily=IP1_DU status=variable vmaxpu=1.5 vminpu=0.92
New Load.BT_IP6273_M1 bus1=BT603411.1.4 phases=1 conn=Wye model=2 kv=0.22 kw=0.204713 pf=0.92 daily=IP1_DU status=variable vmaxpu=1.5 vminpu=0.92
New Load.BT_IP6273_M2 bus1=BT603411.1.4 phases=1 conn=Wye model=3 kv=0.22 kw=0.204713 pf=0.92 daily=IP1_DU status=variable vmaxpu=1.5 vminpu=0.92
New Load.BT_138163_M1 bus1=UC138163.1.4 phases=1 conn=Wye model=2 kv=0.22 kw=0.1824855 pf=0.92 daily=RU1_DU status=variable vmaxpu=1.5 vminpu=0.92
New Load.BT_138163_M2 bus1=UC138163.1.4 phases=1 conn=Wye model=3 kv=0.22 kw=0.1824855 pf=0.92 daily=RU1_DU status=variable vmaxpu=1.5 vminpu=0.92
New Load.BT_133707_M1 bus1=UC133707.1.4 phases=1 conn=Wye model=2 kv=0.22 kw=0.264063 pf=0.92 daily=RU7_DU status=variable vmaxpu=1.5 vminpu=0.92
New Load.BT_133707_M2 bus1=UC133707.1.4 phases=1 conn=Wye model=3 kv=0.22 kw=0.264063 pf=0.92 daily=RU7_DU status=variable vmaxpu=1.5 vminpu=0.92
New Load.BT_102537_M1 bus1=UC102537.1.2.4 phases=1 conn=Delta model=2 kv=0.44 kw=0.469107 pf=0.92 daily=RU4_DU status=variable vmaxpu=1.5 vminpu=0.92
New Load.BT_102537_M2 bus1=UC102537.1.2.4 phases=1 conn=Delta model=3 kv=0.44 kw=0.469107 pf=0.92 daily=RU4_DU status=variable vmaxpu=1.5 vminpu=0.92
New Load.BT_102539_M1 bus1=UC102539.2.4 phases=1 conn=Wye model=2 kv=0.22 kw=0.2363305 pf=0.92 daily=RU7_DU status=variable vmaxpu=1.5 vminpu=0.92
New Load.BT_102539_M2 bus1=UC102539.2.4 phases=1 conn=Wye model=3 kv=0.22 kw=0.2363305 pf=0.92 daily=RU7_DU status=variable vmaxpu=1.5 vminpu=0.92
New Load.BT_103030_M1 bus1=UC103030.1.2.4 phases=1 conn=Delta model=2 kv=0.44 kw=0.567847 pf=0.92 daily=RU6_DU status=variable vmaxpu=1.5 vminpu=0.92
New Load.BT_103030_M2 bus1=UC103030.1.2.4 phases=1 conn=Delta model=3 kv=0.44 kw=0.567847 pf=0.92 daily=RU6_DU status=variable vmaxpu=1.5 vminpu=0.92
New Load.BT_103031_M1 bus1=UC103031.1.4 phases=1 conn=Wye model=2 kv=0.22 kw=0.357162 pf=0.92 daily=RU2_DU status=variable vmaxpu=1.5 vminpu=0.92
New Load.BT_103031_M2 bus1=UC103031.1.4 phases=1 conn=Wye model=3 kv=0.22 kw=0.357162 pf=0.92 daily=RU2_DU status=variable vmaxpu=1.5 vminpu=0.92
New Load.BT_103064_M1 bus1=UC103064.1.4 phases=1 conn=Wye model=2 kv=0.22 kw=0.0225135 pf=0.92 daily=CO6_DU status=variable vmaxpu=1.5 vminpu=0.92
New Load.BT_103064_M2 bus1=UC103064.1.4 phases=1 conn=Wye model=3 kv=0.22 kw=0.0225135 pf=0.92 daily=CO6_DU status=variable vmaxpu=1.5 vminpu=0.92
New Load.BT_103014_M1 bus1=UC103014.2.4 phases=1 conn=Wye model=2 kv=0.22 kw=0.103234 pf=0.92 daily=RU3_DU status=variable vmaxpu=1.5 vminpu=0.92
New Load.BT_103014_M2 bus1=UC103014.2.4 phases=1 conn=Wye model=3 kv=0.22 kw=0.103234 pf=0.92 daily=RU3_DU status=variable vmaxpu=1.5 vminpu=0.92
New Load.BT_103016_M1 bus1=UC103016.2.4 phases=1 conn=Wye model=2 kv=0.22 kw=0.1727795 pf=0.92 daily=RE6_DU status=variable vmaxpu=1.5 vminpu=0.92
New Load.BT_103016_M2 bus1=UC103016.2.4 phases=1 conn=Wye model=3 kv=0.22 kw=0.1727795 pf=0.92 daily=RE6_DU status=variable vmaxpu=1.5 vminpu=0.92
New Load.BT_103027_M1 bus1=UC103027.2.4 phases=1 conn=Wye model=2 kv=0.22 kw=0.155779 pf=0.92 daily=RU8_DU status=variable vmaxpu=1.5 vminpu=0.92
New Load.BT_103027_M2 bus1=UC103027.2.4 phases=1 conn=Wye model=3 kv=0.22 kw=0.155779 pf=0.92 daily=RU8_DU status=variable vmaxpu=1.5 vminpu=0.92
New Load.BT_103018_M1 bus1=UC103018.2.4 phases=1 conn=Wye model=2 kv=0.22 kw=0.0988645 pf=0.92 daily=CO2_DU status=variable vmaxpu=1.5 vminpu=0.92
New Load.BT_103018_M2 bus1=UC103018.2.4 phases=1 conn=Wye model=3 kv=0.22 kw=0.0988645 pf=0.92 daily=CO2_DU status=variable vmaxpu=1.5 vminpu=0.92
New Load.BT_103021_M1 bus1=UC103021.2.4 phases=1 conn=Wye model=2 kv=0.22 kw=0.1601005 pf=0.92 daily=RU3_DU status=variable vmaxpu=1.5 vminpu=0.92
New Load.BT_103021_M2 bus1=UC103021.2.4 phases=1 conn=Wye model=3 kv=0.22 kw=0.1601005 pf=0.92 daily=RU3_DU status=variable vmaxpu=1.5 vminpu=0.92
New Load.BT_103022_M1 bus1=UC103022.2.4 phases=1 conn=Wye model=2 kv=0.22 kw=0.3144445 pf=0.92 daily=RU5_DU status=variable vmaxpu=1.5 vminpu=0.92
New Load.BT_103022_M2 bus1=UC103022.2.4 phases=1 conn=Wye model=3 kv=0.22 kw=0.3144445 pf=0.92 daily=RU5_DU status=variable vmaxpu=1.5 vminpu=0.92
New Load.BT_103023_M1 bus1=UC103023.1.4 phases=1 conn=Wye model=2 kv=0.22 kw=0.1772475 pf=0.92 daily=RU7_DU status=variable vmaxpu=1.5 vminpu=0.92
New Load.BT_103023_M2 bus1=UC103023.1.4 phases=1 conn=Wye model=3 kv=0.22 kw=0.1772475 pf=0.92 daily=RU7_DU status=variable vmaxpu=1.5 vminpu=0.92
New Load.BT_101738_M1 bus1=UC101738.1.4 phases=1 conn=Wye model=2 kv=0.22 kw=0.2842175 pf=0.92 daily=RU4_DU status=variable vmaxpu=1.5 vminpu=0.92
New Load.BT_101738_M2 bus1=UC101738.1.4 phases=1 conn=Wye model=3 kv=0.22 kw=0.2842175 pf=0.92 daily=RU4_DU status=variable vmaxpu=1.5 vminpu=0.92
New Load.BT_115346_M1 bus1=UC115346.1.4 phases=1 conn=Wye model=2 kv=0.22 kw=0.204558 pf=0.92 daily=RU4_DU status=variable vmaxpu=1.5 vminpu=0.92
New Load.BT_115346_M2 bus1=UC115346.1.4 phases=1 conn=Wye model=3 kv=0.22 kw=0.204558 pf=0.92 daily=RU4_DU status=variable vmaxpu=1.5 vminpu=0.92
New Load.BT_115347_M1 bus1=UC115347.1.4 phases=1 conn=Wye model=2 kv=0.22 kw=0.390142 pf=0.92 daily=RU1_DU status=variable vmaxpu=1.5 vminpu=0.92
New Load.BT_115347_M2 bus1=UC115347.1.4 phases=1 conn=Wye model=3 kv=0.22 kw=0.390142 pf=0.92 daily=RU1_DU status=variable vmaxpu=1.5 vminpu=0.92
New Load.BT_136144_M1 bus1=UC136144.2.4 phases=1 conn=Wye model=2 kv=0.22 kw=0.1323185 pf=0.92 daily=RE6_DU status=variable vmaxpu=1.5 vminpu=0.92
New Load.BT_136144_M2 bus1=UC136144.2.4 phases=1 conn=Wye model=3 kv=0.22 kw=0.1323185 pf=0.92 daily=RE6_DU status=variable vmaxpu=1.5 vminpu=0.92
New Load.BT_137555_M1 bus1=UC137555.1.4 phases=1 conn=Wye model=2 kv=0.22 kw=0 pf=0.92 daily=RU4_DU status=variable vmaxpu=1.5 vminpu=0.92
New Load.BT_137555_M2 bus1=UC137555.1.4 phases=1 conn=Wye model=3 kv=0.22 kw=0 pf=0.92 daily=RU4_DU status=variable vmaxpu=1.5 vminpu=0.92
New Load.BT_128685_M1 bus1=UC128685.2.4 phases=1 conn=Wye model=2 kv=0.22 kw=0.171654 pf=0.92 daily=RE4_DU status=variable vmaxpu=1.5 vminpu=0.92
New Load.BT_128685_M2 bus1=UC128685.2.4 phases=1 conn=Wye model=3 kv=0.22 kw=0.171654 pf=0.92 daily=RE4_DU status=variable vmaxpu=1.5 vminpu=0.92
New Load.BT_131183_M1 bus1=UC131183.1.4 phases=1 conn=Wye model=2 kv=0.22 kw=0.162771 pf=0.92 daily=RU5_DU status=variable vmaxpu=1.5 vminpu=0.92
New Load.BT_131183_M2 bus1=UC131183.1.4 phases=1 conn=Wye model=3 kv=0.22 kw=0.162771 pf=0.92 daily=RU5_DU status=variable vmaxpu=1.5 vminpu=0.92
New Load.BT_117120_M1 bus1=UC117120.1.4 phases=1 conn=Wye model=2 kv=0.22 kw=0.237443 pf=0.92 daily=RU2_DU status=variable vmaxpu=1.5 vminpu=0.92
New Load.BT_117120_M2 bus1=UC117120.1.4 phases=1 conn=Wye model=3 kv=0.22 kw=0.237443 pf=0.92 daily=RU2_DU status=variable vmaxpu=1.5 vminpu=0.92
New Load.BT_101489_M1 bus1=UC101489.1.4 phases=1 conn=Wye model=2 kv=0.22 kw=0.630521 pf=0.92 daily=RU2_DU status=variable vmaxpu=1.5 vminpu=0.92
New Load.BT_101489_M2 bus1=UC101489.1.4 phases=1 conn=Wye model=3 kv=0.22 kw=0.630521 pf=0.92 daily=RU2_DU status=variable vmaxpu=1.5 vminpu=0.92
...
